 INFO
nunit      1    1    1
unit   cell
celltype   primcell
shape   parapipedal
 END_INFO
 DIM-GROUP
           3           1
 PRIMVEC
    7.2985960170    7.3684513500    3.0194683030
    7.2985960170   -7.3684513500    3.0194683030
    7.2985960170   -7.3684513500   -3.0194683030
 CONVVEC
    7.2985960170    7.3684513500    3.0194683030
    7.2985960170   -7.3684513500    3.0194683030
    7.2985960170   -7.3684513500   -3.0194683030
 PRIMCOORD
          50           1
 82     16.2779777490    -7.3684513500     1.5097341520
 82      5.6178103020     0.0000000000     1.5097341520
 35      5.8141837590     3.0176560150     1.5097341510
 35      5.8141837580    -3.0176560320     1.5097341510
 35     16.0816042990   -10.3861073720     1.5097341550
 35     16.0816043000    -4.3507953250     1.5097341550
 35     13.0335680000    -7.3684513500     1.5097341520
 35      8.8622200510     0.0000000000     1.5097341520
 35     11.8808046510     0.0000000000     4.5292024550
 35     10.0149834000    -7.3684513500    -1.5097341520
  6     11.2671966870    -2.9941186050     1.5097341510
  6     11.2671966880     2.9941186030     1.5097341520
  6     10.6285913640    -4.3743327450     1.5097341520
  6     10.6285913630   -10.3625699530     1.5097341520
  6     13.4303398880    -1.8015930000     1.5097341520
  6      6.1317438710    -5.5668583650    -1.5097341520
  6      8.4654481700    -5.5668583570     1.5097341550
  6     15.7640441870    -1.8015929930     4.5292024580
  1     10.9077694170    -4.9451131660     0.6151552310
  1      3.6091734010    -2.4233381850    -0.6151552310
  1     10.9880186340    -2.4233381840     0.6151552310
  1     10.9880186330     2.4233381850     2.4043130720
  1     10.9880186340    -2.4233381840     2.4043130720
  1     18.2866146500    -4.9451131650     3.6346235340
  1     10.9077694170    -4.9451131660     2.4043130720
  1     10.9077694180    -9.7917895350     0.6151552310
  1     14.5109616930    -1.9686181900     1.5097341520
  1      7.2123656760    -5.3998331590    -1.5097341510
  1      7.3848263580    -5.3998331600     1.5097341520
  1     14.6834223750    -1.9686181910     4.5292024540
  1      8.7771122630    -6.1109106120     2.4081082080
  1      8.7771122650    -8.6259920880     0.6113600950
  1     13.1186757950    -1.2575407460     2.4081082110
  1     13.1186757790     1.2575407460     0.6113600920
  1     13.1186757880    -1.2575407380     0.6113600950
  1     13.1186757860     1.2575407380     2.4081082080
  1      8.7771122560    -6.1109106040     0.6113600920
  1      8.7771122720    -8.6259920960     2.4081082110
  1      8.8525932020    -3.7061690430     0.6606965400
  1      8.8525932110     3.7061690510     2.3587717660
  1     13.0431948490    -3.6622823060     0.6606965400
  1      5.7445988240    -3.7061690510    -0.6606965430
  1     13.0431948490    -3.6622823070     2.3587717630
  1     13.0431948400   -11.0746204010     0.6606965370
  1      8.8525932020    -3.7061690440     2.3587717630
  1     16.1511892270    -3.6622822990     3.6801648460
  7     12.7504880350    -3.1254104570     1.5097341520
  7      5.4518920170    -4.2430409070    -1.5097341520
  7      9.1453000230    -4.2430409000     1.5097341540
  7     16.4438960410    -3.1254104500     4.5292024580
 CONVCOORD
          50           1
 82     16.2779777490    -7.3684513500     1.5097341520
 82      5.6178103020     0.0000000000     1.5097341520
 35      5.8141837590     3.0176560150     1.5097341510
 35      5.8141837580    -3.0176560320     1.5097341510
 35     16.0816042990   -10.3861073720     1.5097341550
 35     16.0816043000    -4.3507953250     1.5097341550
 35     13.0335680000    -7.3684513500     1.5097341520
 35      8.8622200510     0.0000000000     1.5097341520
 35     11.8808046510     0.0000000000     4.5292024550
 35     10.0149834000    -7.3684513500    -1.5097341520
  6     11.2671966870    -2.9941186050     1.5097341510
  6     11.2671966880     2.9941186030     1.5097341520
  6     10.6285913640    -4.3743327450     1.5097341520
  6     10.6285913630   -10.3625699530     1.5097341520
  6     13.4303398880    -1.8015930000     1.5097341520
  6      6.1317438710    -5.5668583650    -1.5097341520
  6      8.4654481700    -5.5668583570     1.5097341550
  6     15.7640441870    -1.8015929930     4.5292024580
  1     10.9077694170    -4.9451131660     0.6151552310
  1      3.6091734010    -2.4233381850    -0.6151552310
  1     10.9880186340    -2.4233381840     0.6151552310
  1     10.9880186330     2.4233381850     2.4043130720
  1     10.9880186340    -2.4233381840     2.4043130720
  1     18.2866146500    -4.9451131650     3.6346235340
  1     10.9077694170    -4.9451131660     2.4043130720
  1     10.9077694180    -9.7917895350     0.6151552310
  1     14.5109616930    -1.9686181900     1.5097341520
  1      7.2123656760    -5.3998331590    -1.5097341510
  1      7.3848263580    -5.3998331600     1.5097341520
  1     14.6834223750    -1.9686181910     4.5292024540
  1      8.7771122630    -6.1109106120     2.4081082080
  1      8.7771122650    -8.6259920880     0.6113600950
  1     13.1186757950    -1.2575407460     2.4081082110
  1     13.1186757790     1.2575407460     0.6113600920
  1     13.1186757880    -1.2575407380     0.6113600950
  1     13.1186757860     1.2575407380     2.4081082080
  1      8.7771122560    -6.1109106040     0.6113600920
  1      8.7771122720    -8.6259920960     2.4081082110
  1      8.8525932020    -3.7061690430     0.6606965400
  1      8.8525932110     3.7061690510     2.3587717660
  1     13.0431948490    -3.6622823060     0.6606965400
  1      5.7445988240    -3.7061690510    -0.6606965430
  1     13.0431948490    -3.6622823070     2.3587717630
  1     13.0431948400   -11.0746204010     0.6606965370
  1      8.8525932020    -3.7061690440     2.3587717630
  1     16.1511892270    -3.6622822990     3.6801648460
  7     12.7504880350    -3.1254104570     1.5097341520
  7      5.4518920170    -4.2430409070    -1.5097341520
  7      9.1453000230    -4.2430409000     1.5097341540
  7     16.4438960410    -3.1254104500     4.5292024580
 RECIP-PRIMVEC
    0.0685063263    0.0678568638    0.0000000000

    0.0000000000   -0.0678568638    0.1655920678

    0.0685063263    0.0000000000   -0.1655920678

 RECIP-CONVVEC
    0.0685063263    0.0678568638    0.0000000000

    0.0000000000   -0.0678568638    0.1655920678

    0.0685063263    0.0000000000   -0.1655920678

 WIGNER-SEITZ-PRIMCELL
           4
  0.7298596E+01 -0.6881880E+00 -0.1400213E-14   0.1000000E+01  0.0000000E+00  0.0000000E+00
  0.7298596E+01  0.7001066E-15 -0.1679395E+01   0.1000000E+01  0.0000000E+00  0.0000000E+00
  0.7298596E+01  0.6881880E+00 -0.1400213E-14   0.1000000E+01  0.0000000E+00  0.0000000E+00
  0.7298596E+01  0.7001066E-15  0.1679395E+01   0.1000000E+01  0.0000000E+00  0.0000000E+00
           6
  0.0000000E+00  0.6680263E+01  0.3019468E+01   0.6756779E+00  0.6821448E+00  0.2795316E+00
  0.6744201E+01  0.0000000E+00  0.3019468E+01   0.6756779E+00  0.6821448E+00  0.2795316E+00
  0.7298596E+01  0.7001066E-15  0.1679395E+01   0.6756779E+00  0.6821448E+00  0.2795316E+00
  0.7298596E+01  0.6881880E+00 -0.1400213E-14   0.6756779E+00  0.6821448E+00  0.2795316E+00
  0.5543955E+00  0.7368451E+01 -0.1750266E-15   0.6756779E+00  0.6821448E+00  0.2795316E+00
  0.0000000E+00  0.7368451E+01  0.1340073E+01   0.6756779E+00  0.6821448E+00  0.2795316E+00
           6
  0.0000000E+00 -0.7368451E+01  0.1340073E+01   0.6756779E+00 -0.6821448E+00  0.2795316E+00
  0.5543955E+00 -0.7368451E+01 -0.1750266E-15   0.6756779E+00 -0.6821448E+00  0.2795316E+00
  0.7298596E+01 -0.6881880E+00 -0.1400213E-14   0.6756779E+00 -0.6821448E+00  0.2795316E+00
  0.7298596E+01  0.7001066E-15  0.1679395E+01   0.6756779E+00 -0.6821448E+00  0.2795316E+00
  0.6744201E+01  0.0000000E+00  0.3019468E+01   0.6756779E+00 -0.6821448E+00  0.2795316E+00
  0.0000000E+00 -0.6680263E+01  0.3019468E+01   0.6756779E+00 -0.6821448E+00  0.2795316E+00
           6
  0.5543955E+00  0.7368451E+01 -0.1750266E-15   0.6756779E+00  0.6821448E+00 -0.2795316E+00
  0.7298596E+01  0.6881880E+00 -0.1400213E-14   0.6756779E+00  0.6821448E+00 -0.2795316E+00
  0.7298596E+01  0.7001066E-15 -0.1679395E+01   0.6756779E+00  0.6821448E+00 -0.2795316E+00
  0.6744201E+01  0.0000000E+00 -0.3019468E+01   0.6756779E+00  0.6821448E+00 -0.2795316E+00
  0.0000000E+00  0.6680263E+01 -0.3019468E+01   0.6756779E+00  0.6821448E+00 -0.2795316E+00
  0.0000000E+00  0.7368451E+01 -0.1340073E+01   0.6756779E+00  0.6821448E+00 -0.2795316E+00
           6
  0.0000000E+00 -0.7368451E+01 -0.1340073E+01   0.6756779E+00 -0.6821448E+00 -0.2795316E+00
  0.0000000E+00 -0.6680263E+01 -0.3019468E+01   0.6756779E+00 -0.6821448E+00 -0.2795316E+00
  0.6744201E+01  0.0000000E+00 -0.3019468E+01   0.6756779E+00 -0.6821448E+00 -0.2795316E+00
  0.7298596E+01  0.7001066E-15 -0.1679395E+01   0.6756779E+00 -0.6821448E+00 -0.2795316E+00
  0.7298596E+01 -0.6881880E+00 -0.1400213E-14   0.6756779E+00 -0.6821448E+00 -0.2795316E+00
  0.5543955E+00 -0.7368451E+01 -0.1750266E-15   0.6756779E+00 -0.6821448E+00 -0.2795316E+00
           4
  0.0000000E+00 -0.6680263E+01  0.3019468E+01  -0.1577125E-15  0.0000000E+00  0.1000000E+01
  0.6744201E+01  0.0000000E+00  0.3019468E+01  -0.1577125E-15  0.0000000E+00  0.1000000E+01
  0.0000000E+00  0.6680263E+01  0.3019468E+01  -0.1577125E-15  0.0000000E+00  0.1000000E+01
 -0.6744201E+01  0.0000000E+00  0.3019468E+01  -0.1577125E-15  0.0000000E+00  0.1000000E+01
           6
 -0.6744201E+01  0.0000000E+00  0.3019468E+01  -0.6756779E+00  0.6821448E+00  0.2795316E+00
  0.0000000E+00  0.6680263E+01  0.3019468E+01  -0.6756779E+00  0.6821448E+00  0.2795316E+00
  0.0000000E+00  0.7368451E+01  0.1340073E+01  -0.6756779E+00  0.6821448E+00  0.2795316E+00
 -0.5543955E+00  0.7368451E+01  0.1750266E-15  -0.6756779E+00  0.6821448E+00  0.2795316E+00
 -0.7298596E+01  0.6881880E+00  0.1400213E-14  -0.6756779E+00  0.6821448E+00  0.2795316E+00
 -0.7298596E+01 -0.7001066E-15  0.1679395E+01  -0.6756779E+00  0.6821448E+00  0.2795316E+00
           4
  0.5543955E+00  0.7368451E+01 -0.1750266E-15   0.0000000E+00  0.1000000E+01  0.0000000E+00
  0.0000000E+00  0.7368451E+01 -0.1340073E+01   0.0000000E+00  0.1000000E+01  0.0000000E+00
 -0.5543955E+00  0.7368451E+01  0.1750266E-15   0.0000000E+00  0.1000000E+01  0.0000000E+00
  0.0000000E+00  0.7368451E+01  0.1340073E+01   0.0000000E+00  0.1000000E+01  0.0000000E+00
           6
 -0.7298596E+01 -0.7001066E-15  0.1679395E+01  -0.6756779E+00 -0.6821448E+00  0.2795316E+00
 -0.7298596E+01 -0.6881880E+00  0.1400213E-14  -0.6756779E+00 -0.6821448E+00  0.2795316E+00
 -0.5543955E+00 -0.7368451E+01  0.1750266E-15  -0.6756779E+00 -0.6821448E+00  0.2795316E+00
  0.0000000E+00 -0.7368451E+01  0.1340073E+01  -0.6756779E+00 -0.6821448E+00  0.2795316E+00
  0.0000000E+00 -0.6680263E+01  0.3019468E+01  -0.6756779E+00 -0.6821448E+00  0.2795316E+00
 -0.6744201E+01  0.0000000E+00  0.3019468E+01  -0.6756779E+00 -0.6821448E+00  0.2795316E+00
           4
  0.0000000E+00 -0.7368451E+01  0.1340073E+01   0.0000000E+00 -0.1000000E+01  0.0000000E+00
 -0.5543955E+00 -0.7368451E+01  0.1750266E-15   0.0000000E+00 -0.1000000E+01  0.0000000E+00
  0.0000000E+00 -0.7368451E+01 -0.1340073E+01   0.0000000E+00 -0.1000000E+01  0.0000000E+00
  0.5543955E+00 -0.7368451E+01 -0.1750266E-15   0.0000000E+00 -0.1000000E+01  0.0000000E+00
           6
 -0.7298596E+01  0.6881880E+00  0.1400213E-14  -0.6756779E+00  0.6821448E+00 -0.2795316E+00
 -0.5543955E+00  0.7368451E+01  0.1750266E-15  -0.6756779E+00  0.6821448E+00 -0.2795316E+00
  0.0000000E+00  0.7368451E+01 -0.1340073E+01  -0.6756779E+00  0.6821448E+00 -0.2795316E+00
  0.0000000E+00  0.6680263E+01 -0.3019468E+01  -0.6756779E+00  0.6821448E+00 -0.2795316E+00
 -0.6744201E+01  0.0000000E+00 -0.3019468E+01  -0.6756779E+00  0.6821448E+00 -0.2795316E+00
 -0.7298596E+01 -0.7001066E-15 -0.1679395E+01  -0.6756779E+00  0.6821448E+00 -0.2795316E+00
           4
 -0.6744201E+01  0.0000000E+00 -0.3019468E+01  -0.1577125E-15  0.0000000E+00 -0.1000000E+01
  0.0000000E+00  0.6680263E+01 -0.3019468E+01  -0.1577125E-15  0.0000000E+00 -0.1000000E+01
  0.6744201E+01  0.0000000E+00 -0.3019468E+01  -0.1577125E-15  0.0000000E+00 -0.1000000E+01
  0.0000000E+00 -0.6680263E+01 -0.3019468E+01  -0.1577125E-15  0.0000000E+00 -0.1000000E+01
           6
 -0.7298596E+01 -0.7001066E-15 -0.1679395E+01  -0.6756779E+00 -0.6821448E+00 -0.2795316E+00
 -0.6744201E+01  0.0000000E+00 -0.3019468E+01  -0.6756779E+00 -0.6821448E+00 -0.2795316E+00
  0.0000000E+00 -0.6680263E+01 -0.3019468E+01  -0.6756779E+00 -0.6821448E+00 -0.2795316E+00
  0.0000000E+00 -0.7368451E+01 -0.1340073E+01  -0.6756779E+00 -0.6821448E+00 -0.2795316E+00
 -0.5543955E+00 -0.7368451E+01  0.1750266E-15  -0.6756779E+00 -0.6821448E+00 -0.2795316E+00
 -0.7298596E+01 -0.6881880E+00  0.1400213E-14  -0.6756779E+00 -0.6821448E+00 -0.2795316E+00
           4
 -0.7298596E+01 -0.7001066E-15  0.1679395E+01  -0.1000000E+01  0.0000000E+00  0.0000000E+00
 -0.7298596E+01  0.6881880E+00  0.1400213E-14  -0.1000000E+01  0.0000000E+00  0.0000000E+00
 -0.7298596E+01 -0.7001066E-15 -0.1679395E+01  -0.1000000E+01  0.0000000E+00  0.0000000E+00
 -0.7298596E+01 -0.6881880E+00  0.1400213E-14  -0.1000000E+01  0.0000000E+00  0.0000000E+00
 WIGNER-SEITZ-PRIMCELL_END
 WIGNER-SEITZ-CONVCELL
           4
  0.7298596E+01 -0.6881880E+00 -0.1400213E-14   0.1000000E+01  0.0000000E+00  0.0000000E+00
  0.7298596E+01  0.7001066E-15 -0.1679395E+01   0.1000000E+01  0.0000000E+00  0.0000000E+00
  0.7298596E+01  0.6881880E+00 -0.1400213E-14   0.1000000E+01  0.0000000E+00  0.0000000E+00
  0.7298596E+01  0.7001066E-15  0.1679395E+01   0.1000000E+01  0.0000000E+00  0.0000000E+00
           6
  0.0000000E+00  0.6680263E+01  0.3019468E+01   0.6756779E+00  0.6821448E+00  0.2795316E+00
  0.6744201E+01  0.0000000E+00  0.3019468E+01   0.6756779E+00  0.6821448E+00  0.2795316E+00
  0.7298596E+01  0.7001066E-15  0.1679395E+01   0.6756779E+00  0.6821448E+00  0.2795316E+00
  0.7298596E+01  0.6881880E+00 -0.1400213E-14   0.6756779E+00  0.6821448E+00  0.2795316E+00
  0.5543955E+00  0.7368451E+01 -0.1750266E-15   0.6756779E+00  0.6821448E+00  0.2795316E+00
  0.0000000E+00  0.7368451E+01  0.1340073E+01   0.6756779E+00  0.6821448E+00  0.2795316E+00
           6
  0.0000000E+00 -0.7368451E+01  0.1340073E+01   0.6756779E+00 -0.6821448E+00  0.2795316E+00
  0.5543955E+00 -0.7368451E+01 -0.1750266E-15   0.6756779E+00 -0.6821448E+00  0.2795316E+00
  0.7298596E+01 -0.6881880E+00 -0.1400213E-14   0.6756779E+00 -0.6821448E+00  0.2795316E+00
  0.7298596E+01  0.7001066E-15  0.1679395E+01   0.6756779E+00 -0.6821448E+00  0.2795316E+00
  0.6744201E+01  0.0000000E+00  0.3019468E+01   0.6756779E+00 -0.6821448E+00  0.2795316E+00
  0.0000000E+00 -0.6680263E+01  0.3019468E+01   0.6756779E+00 -0.6821448E+00  0.2795316E+00
           6
  0.5543955E+00  0.7368451E+01 -0.1750266E-15   0.6756779E+00  0.6821448E+00 -0.2795316E+00
  0.7298596E+01  0.6881880E+00 -0.1400213E-14   0.6756779E+00  0.6821448E+00 -0.2795316E+00
  0.7298596E+01  0.7001066E-15 -0.1679395E+01   0.6756779E+00  0.6821448E+00 -0.2795316E+00
  0.6744201E+01  0.0000000E+00 -0.3019468E+01   0.6756779E+00  0.6821448E+00 -0.2795316E+00
  0.0000000E+00  0.6680263E+01 -0.3019468E+01   0.6756779E+00  0.6821448E+00 -0.2795316E+00
  0.0000000E+00  0.7368451E+01 -0.1340073E+01   0.6756779E+00  0.6821448E+00 -0.2795316E+00
           6
  0.0000000E+00 -0.7368451E+01 -0.1340073E+01   0.6756779E+00 -0.6821448E+00 -0.2795316E+00
  0.0000000E+00 -0.6680263E+01 -0.3019468E+01   0.6756779E+00 -0.6821448E+00 -0.2795316E+00
  0.6744201E+01  0.0000000E+00 -0.3019468E+01   0.6756779E+00 -0.6821448E+00 -0.2795316E+00
  0.7298596E+01  0.7001066E-15 -0.1679395E+01   0.6756779E+00 -0.6821448E+00 -0.2795316E+00
  0.7298596E+01 -0.6881880E+00 -0.1400213E-14   0.6756779E+00 -0.6821448E+00 -0.2795316E+00
  0.5543955E+00 -0.7368451E+01 -0.1750266E-15   0.6756779E+00 -0.6821448E+00 -0.2795316E+00
           4
  0.0000000E+00 -0.6680263E+01  0.3019468E+01  -0.1577125E-15  0.0000000E+00  0.1000000E+01
  0.6744201E+01  0.0000000E+00  0.3019468E+01  -0.1577125E-15  0.0000000E+00  0.1000000E+01
  0.0000000E+00  0.6680263E+01  0.3019468E+01  -0.1577125E-15  0.0000000E+00  0.1000000E+01
 -0.6744201E+01  0.0000000E+00  0.3019468E+01  -0.1577125E-15  0.0000000E+00  0.1000000E+01
           6
 -0.6744201E+01  0.0000000E+00  0.3019468E+01  -0.6756779E+00  0.6821448E+00  0.2795316E+00
  0.0000000E+00  0.6680263E+01  0.3019468E+01  -0.6756779E+00  0.6821448E+00  0.2795316E+00
  0.0000000E+00  0.7368451E+01  0.1340073E+01  -0.6756779E+00  0.6821448E+00  0.2795316E+00
 -0.5543955E+00  0.7368451E+01  0.1750266E-15  -0.6756779E+00  0.6821448E+00  0.2795316E+00
 -0.7298596E+01  0.6881880E+00  0.1400213E-14  -0.6756779E+00  0.6821448E+00  0.2795316E+00
 -0.7298596E+01 -0.7001066E-15  0.1679395E+01  -0.6756779E+00  0.6821448E+00  0.2795316E+00
           4
  0.5543955E+00  0.7368451E+01 -0.1750266E-15   0.0000000E+00  0.1000000E+01  0.0000000E+00
  0.0000000E+00  0.7368451E+01 -0.1340073E+01   0.0000000E+00  0.1000000E+01  0.0000000E+00
 -0.5543955E+00  0.7368451E+01  0.1750266E-15   0.0000000E+00  0.1000000E+01  0.0000000E+00
  0.0000000E+00  0.7368451E+01  0.1340073E+01   0.0000000E+00  0.1000000E+01  0.0000000E+00
           6
 -0.7298596E+01 -0.7001066E-15  0.1679395E+01  -0.6756779E+00 -0.6821448E+00  0.2795316E+00
 -0.7298596E+01 -0.6881880E+00  0.1400213E-14  -0.6756779E+00 -0.6821448E+00  0.2795316E+00
 -0.5543955E+00 -0.7368451E+01  0.1750266E-15  -0.6756779E+00 -0.6821448E+00  0.2795316E+00
  0.0000000E+00 -0.7368451E+01  0.1340073E+01  -0.6756779E+00 -0.6821448E+00  0.2795316E+00
  0.0000000E+00 -0.6680263E+01  0.3019468E+01  -0.6756779E+00 -0.6821448E+00  0.2795316E+00
 -0.6744201E+01  0.0000000E+00  0.3019468E+01  -0.6756779E+00 -0.6821448E+00  0.2795316E+00
           4
  0.0000000E+00 -0.7368451E+01  0.1340073E+01   0.0000000E+00 -0.1000000E+01  0.0000000E+00
 -0.5543955E+00 -0.7368451E+01  0.1750266E-15   0.0000000E+00 -0.1000000E+01  0.0000000E+00
  0.0000000E+00 -0.7368451E+01 -0.1340073E+01   0.0000000E+00 -0.1000000E+01  0.0000000E+00
  0.5543955E+00 -0.7368451E+01 -0.1750266E-15   0.0000000E+00 -0.1000000E+01  0.0000000E+00
           6
 -0.7298596E+01  0.6881880E+00  0.1400213E-14  -0.6756779E+00  0.6821448E+00 -0.2795316E+00
 -0.5543955E+00  0.7368451E+01  0.1750266E-15  -0.6756779E+00  0.6821448E+00 -0.2795316E+00
  0.0000000E+00  0.7368451E+01 -0.1340073E+01  -0.6756779E+00  0.6821448E+00 -0.2795316E+00
  0.0000000E+00  0.6680263E+01 -0.3019468E+01  -0.6756779E+00  0.6821448E+00 -0.2795316E+00
 -0.6744201E+01  0.0000000E+00 -0.3019468E+01  -0.6756779E+00  0.6821448E+00 -0.2795316E+00
 -0.7298596E+01 -0.7001066E-15 -0.1679395E+01  -0.6756779E+00  0.6821448E+00 -0.2795316E+00
           4
 -0.6744201E+01  0.0000000E+00 -0.3019468E+01  -0.1577125E-15  0.0000000E+00 -0.1000000E+01
  0.0000000E+00  0.6680263E+01 -0.3019468E+01  -0.1577125E-15  0.0000000E+00 -0.1000000E+01
  0.6744201E+01  0.0000000E+00 -0.3019468E+01  -0.1577125E-15  0.0000000E+00 -0.1000000E+01
  0.0000000E+00 -0.6680263E+01 -0.3019468E+01  -0.1577125E-15  0.0000000E+00 -0.1000000E+01
           6
 -0.7298596E+01 -0.7001066E-15 -0.1679395E+01  -0.6756779E+00 -0.6821448E+00 -0.2795316E+00
 -0.6744201E+01  0.0000000E+00 -0.3019468E+01  -0.6756779E+00 -0.6821448E+00 -0.2795316E+00
  0.0000000E+00 -0.6680263E+01 -0.3019468E+01  -0.6756779E+00 -0.6821448E+00 -0.2795316E+00
  0.0000000E+00 -0.7368451E+01 -0.1340073E+01  -0.6756779E+00 -0.6821448E+00 -0.2795316E+00
 -0.5543955E+00 -0.7368451E+01  0.1750266E-15  -0.6756779E+00 -0.6821448E+00 -0.2795316E+00
 -0.7298596E+01 -0.6881880E+00  0.1400213E-14  -0.6756779E+00 -0.6821448E+00 -0.2795316E+00
           4
 -0.7298596E+01 -0.7001066E-15  0.1679395E+01  -0.1000000E+01  0.0000000E+00  0.0000000E+00
 -0.7298596E+01  0.6881880E+00  0.1400213E-14  -0.1000000E+01  0.0000000E+00  0.0000000E+00
 -0.7298596E+01 -0.7001066E-15 -0.1679395E+01  -0.1000000E+01  0.0000000E+00  0.0000000E+00
 -0.7298596E+01 -0.6881880E+00  0.1400213E-14  -0.1000000E+01  0.0000000E+00  0.0000000E+00
 WIGNER-SEITZ-CONVCELL_END
 BRILLOUIN-ZONE-PRIMCELL
           6
 -0.6785994E-01  0.0000000E+00 -0.6889273E-01  -0.7104665E+00 -0.7037310E+00  0.1632947E-14
 -0.3425316E-01 -0.3392843E-01 -0.8279603E-01  -0.7104665E+00 -0.7037310E+00  0.1632947E-14
 -0.6463839E-03 -0.6785686E-01 -0.6889273E-01  -0.7104665E+00 -0.7037310E+00  0.1632947E-14
 -0.6463839E-03 -0.6785686E-01  0.6889273E-01  -0.7104665E+00 -0.7037310E+00  0.1632947E-14
 -0.3425316E-01 -0.3392843E-01  0.8279603E-01  -0.7104665E+00 -0.7037310E+00  0.1632947E-14
 -0.6785994E-01  0.0000000E+00  0.6889273E-01  -0.7104665E+00 -0.7037310E+00  0.1632947E-14
           4
 -0.6785994E-01  0.0000000E+00 -0.6889273E-01  -0.3822826E+00 -0.1757288E-15 -0.9240455E+00
 -0.3425316E-01  0.3392843E-01 -0.8279603E-01  -0.3822826E+00 -0.1757288E-15 -0.9240455E+00
 -0.6463839E-03  0.0000000E+00 -0.9669934E-01  -0.3822826E+00 -0.1757288E-15 -0.9240455E+00
 -0.3425316E-01 -0.3392843E-01 -0.8279603E-01  -0.3822826E+00 -0.1757288E-15 -0.9240455E+00
           6
 -0.3425316E-01 -0.3392843E-01 -0.8279603E-01   0.0000000E+00 -0.3791816E+00 -0.9253223E+00
 -0.6463839E-03  0.0000000E+00 -0.9669934E-01   0.0000000E+00 -0.3791816E+00 -0.9253223E+00
  0.6463839E-03  0.0000000E+00 -0.9669934E-01   0.0000000E+00 -0.3791816E+00 -0.9253223E+00
  0.3425316E-01 -0.3392843E-01 -0.8279603E-01   0.0000000E+00 -0.3791816E+00 -0.9253223E+00
  0.6463839E-03 -0.6785686E-01 -0.6889273E-01   0.0000000E+00 -0.3791816E+00 -0.9253223E+00
 -0.6463839E-03 -0.6785686E-01 -0.6889273E-01   0.0000000E+00 -0.3791816E+00 -0.9253223E+00
           6
 -0.6785994E-01  0.0000000E+00  0.6889273E-01  -0.7104665E+00  0.7037310E+00  0.6531787E-15
 -0.3425316E-01  0.3392843E-01  0.8279603E-01  -0.7104665E+00  0.7037310E+00  0.6531787E-15
 -0.6463839E-03  0.6785686E-01  0.6889273E-01  -0.7104665E+00  0.7037310E+00  0.6531787E-15
 -0.6463839E-03  0.6785686E-01 -0.6889273E-01  -0.7104665E+00  0.7037310E+00  0.6531787E-15
 -0.3425316E-01  0.3392843E-01 -0.8279603E-01  -0.7104665E+00  0.7037310E+00  0.6531787E-15
 -0.6785994E-01  0.0000000E+00 -0.6889273E-01  -0.7104665E+00  0.7037310E+00  0.6531787E-15
           4
 -0.6463839E-03 -0.6785686E-01 -0.6889273E-01   0.0000000E+00 -0.1000000E+01  0.0000000E+00
  0.6463839E-03 -0.6785686E-01 -0.6889273E-01   0.0000000E+00 -0.1000000E+01  0.0000000E+00
  0.6463839E-03 -0.6785686E-01  0.6889273E-01   0.0000000E+00 -0.1000000E+01  0.0000000E+00
 -0.6463839E-03 -0.6785686E-01  0.6889273E-01   0.0000000E+00 -0.1000000E+01  0.0000000E+00
           6
 -0.3425316E-01 -0.3392843E-01  0.8279603E-01   0.0000000E+00 -0.3791816E+00  0.9253223E+00
 -0.6463839E-03 -0.6785686E-01  0.6889273E-01   0.0000000E+00 -0.3791816E+00  0.9253223E+00
  0.6463839E-03 -0.6785686E-01  0.6889273E-01   0.0000000E+00 -0.3791816E+00  0.9253223E+00
  0.3425316E-01 -0.3392843E-01  0.8279603E-01   0.0000000E+00 -0.3791816E+00  0.9253223E+00
  0.6463839E-03  0.0000000E+00  0.9669934E-01   0.0000000E+00 -0.3791816E+00  0.9253223E+00
 -0.6463839E-03  0.0000000E+00  0.9669934E-01   0.0000000E+00 -0.3791816E+00  0.9253223E+00
           4
 -0.6463839E-03  0.0000000E+00  0.9669934E-01  -0.3822826E+00 -0.3514576E-15  0.9240455E+00
 -0.3425316E-01  0.3392843E-01  0.8279603E-01  -0.3822826E+00 -0.3514576E-15  0.9240455E+00
 -0.6785994E-01  0.0000000E+00  0.6889273E-01  -0.3822826E+00 -0.3514576E-15  0.9240455E+00
 -0.3425316E-01 -0.3392843E-01  0.8279603E-01  -0.3822826E+00 -0.3514576E-15  0.9240455E+00
           6
 -0.6463839E-03  0.6785686E-01 -0.6889273E-01   0.0000000E+00  0.3791816E+00 -0.9253223E+00
  0.6463839E-03  0.6785686E-01 -0.6889273E-01   0.0000000E+00  0.3791816E+00 -0.9253223E+00
  0.3425316E-01  0.3392843E-01 -0.8279603E-01   0.0000000E+00  0.3791816E+00 -0.9253223E+00
  0.6463839E-03  0.0000000E+00 -0.9669934E-01   0.0000000E+00  0.3791816E+00 -0.9253223E+00
 -0.6463839E-03  0.0000000E+00 -0.9669934E-01   0.0000000E+00  0.3791816E+00 -0.9253223E+00
 -0.3425316E-01  0.3392843E-01 -0.8279603E-01   0.0000000E+00  0.3791816E+00 -0.9253223E+00
           6
  0.6463839E-03 -0.6785686E-01 -0.6889273E-01   0.7104665E+00 -0.7037310E+00  0.6531787E-15
  0.3425316E-01 -0.3392843E-01 -0.8279603E-01   0.7104665E+00 -0.7037310E+00  0.6531787E-15
  0.6785994E-01  0.0000000E+00 -0.6889273E-01   0.7104665E+00 -0.7037310E+00  0.6531787E-15
  0.6785994E-01  0.0000000E+00  0.6889273E-01   0.7104665E+00 -0.7037310E+00  0.6531787E-15
  0.3425316E-01 -0.3392843E-01  0.8279603E-01   0.7104665E+00 -0.7037310E+00  0.6531787E-15
  0.6463839E-03 -0.6785686E-01  0.6889273E-01   0.7104665E+00 -0.7037310E+00  0.6531787E-15
           4
  0.3425316E-01 -0.3392843E-01 -0.8279603E-01   0.3822826E+00  0.1757288E-15 -0.9240455E+00
  0.6463839E-03  0.0000000E+00 -0.9669934E-01   0.3822826E+00  0.1757288E-15 -0.9240455E+00
  0.3425316E-01  0.3392843E-01 -0.8279603E-01   0.3822826E+00  0.1757288E-15 -0.9240455E+00
  0.6785994E-01  0.0000000E+00 -0.6889273E-01   0.3822826E+00  0.1757288E-15 -0.9240455E+00
           6
 -0.6463839E-03  0.0000000E+00  0.9669934E-01   0.0000000E+00  0.3791816E+00  0.9253223E+00
  0.6463839E-03  0.0000000E+00  0.9669934E-01   0.0000000E+00  0.3791816E+00  0.9253223E+00
  0.3425316E-01  0.3392843E-01  0.8279603E-01   0.0000000E+00  0.3791816E+00  0.9253223E+00
  0.6463839E-03  0.6785686E-01  0.6889273E-01   0.0000000E+00  0.3791816E+00  0.9253223E+00
 -0.6463839E-03  0.6785686E-01  0.6889273E-01   0.0000000E+00  0.3791816E+00  0.9253223E+00
 -0.3425316E-01  0.3392843E-01  0.8279603E-01   0.0000000E+00  0.3791816E+00  0.9253223E+00
           4
 -0.6463839E-03  0.6785686E-01  0.6889273E-01   0.0000000E+00  0.1000000E+01  0.0000000E+00
  0.6463839E-03  0.6785686E-01  0.6889273E-01   0.0000000E+00  0.1000000E+01  0.0000000E+00
  0.6463839E-03  0.6785686E-01 -0.6889273E-01   0.0000000E+00  0.1000000E+01  0.0000000E+00
 -0.6463839E-03  0.6785686E-01 -0.6889273E-01   0.0000000E+00  0.1000000E+01  0.0000000E+00
           4
  0.3425316E-01 -0.3392843E-01  0.8279603E-01   0.3822826E+00  0.3514576E-15  0.9240455E+00
  0.6785994E-01  0.0000000E+00  0.6889273E-01   0.3822826E+00  0.3514576E-15  0.9240455E+00
  0.3425316E-01  0.3392843E-01  0.8279603E-01   0.3822826E+00  0.3514576E-15  0.9240455E+00
  0.6463839E-03  0.0000000E+00  0.9669934E-01   0.3822826E+00  0.3514576E-15  0.9240455E+00
           6
  0.6463839E-03  0.6785686E-01  0.6889273E-01   0.7104665E+00  0.7037310E+00  0.1632947E-14
  0.3425316E-01  0.3392843E-01  0.8279603E-01   0.7104665E+00  0.7037310E+00  0.1632947E-14
  0.6785994E-01  0.0000000E+00  0.6889273E-01   0.7104665E+00  0.7037310E+00  0.1632947E-14
  0.6785994E-01  0.0000000E+00 -0.6889273E-01   0.7104665E+00  0.7037310E+00  0.1632947E-14
  0.3425316E-01  0.3392843E-01 -0.8279603E-01   0.7104665E+00  0.7037310E+00  0.1632947E-14
  0.6463839E-03  0.6785686E-01 -0.6889273E-01   0.7104665E+00  0.7037310E+00  0.1632947E-14
 BRILLOUIN-ZONE-PRIMCELL_END
 BRILLOUIN-ZONE-CONVCELL
           6
 -0.6785994E-01  0.0000000E+00 -0.6889273E-01  -0.7104665E+00 -0.7037310E+00  0.1632947E-14
 -0.3425316E-01 -0.3392843E-01 -0.8279603E-01  -0.7104665E+00 -0.7037310E+00  0.1632947E-14
 -0.6463839E-03 -0.6785686E-01 -0.6889273E-01  -0.7104665E+00 -0.7037310E+00  0.1632947E-14
 -0.6463839E-03 -0.6785686E-01  0.6889273E-01  -0.7104665E+00 -0.7037310E+00  0.1632947E-14
 -0.3425316E-01 -0.3392843E-01  0.8279603E-01  -0.7104665E+00 -0.7037310E+00  0.1632947E-14
 -0.6785994E-01  0.0000000E+00  0.6889273E-01  -0.7104665E+00 -0.7037310E+00  0.1632947E-14
           4
 -0.6785994E-01  0.0000000E+00 -0.6889273E-01  -0.3822826E+00 -0.1757288E-15 -0.9240455E+00
 -0.3425316E-01  0.3392843E-01 -0.8279603E-01  -0.3822826E+00 -0.1757288E-15 -0.9240455E+00
 -0.6463839E-03  0.0000000E+00 -0.9669934E-01  -0.3822826E+00 -0.1757288E-15 -0.9240455E+00
 -0.3425316E-01 -0.3392843E-01 -0.8279603E-01  -0.3822826E+00 -0.1757288E-15 -0.9240455E+00
           6
 -0.3425316E-01 -0.3392843E-01 -0.8279603E-01   0.0000000E+00 -0.3791816E+00 -0.9253223E+00
 -0.6463839E-03  0.0000000E+00 -0.9669934E-01   0.0000000E+00 -0.3791816E+00 -0.9253223E+00
  0.6463839E-03  0.0000000E+00 -0.9669934E-01   0.0000000E+00 -0.3791816E+00 -0.9253223E+00
  0.3425316E-01 -0.3392843E-01 -0.8279603E-01   0.0000000E+00 -0.3791816E+00 -0.9253223E+00
  0.6463839E-03 -0.6785686E-01 -0.6889273E-01   0.0000000E+00 -0.3791816E+00 -0.9253223E+00
 -0.6463839E-03 -0.6785686E-01 -0.6889273E-01   0.0000000E+00 -0.3791816E+00 -0.9253223E+00
           6
 -0.6785994E-01  0.0000000E+00  0.6889273E-01  -0.7104665E+00  0.7037310E+00  0.6531787E-15
 -0.3425316E-01  0.3392843E-01  0.8279603E-01  -0.7104665E+00  0.7037310E+00  0.6531787E-15
 -0.6463839E-03  0.6785686E-01  0.6889273E-01  -0.7104665E+00  0.7037310E+00  0.6531787E-15
 -0.6463839E-03  0.6785686E-01 -0.6889273E-01  -0.7104665E+00  0.7037310E+00  0.6531787E-15
 -0.3425316E-01  0.3392843E-01 -0.8279603E-01  -0.7104665E+00  0.7037310E+00  0.6531787E-15
 -0.6785994E-01  0.0000000E+00 -0.6889273E-01  -0.7104665E+00  0.7037310E+00  0.6531787E-15
           4
 -0.6463839E-03 -0.6785686E-01 -0.6889273E-01   0.0000000E+00 -0.1000000E+01  0.0000000E+00
  0.6463839E-03 -0.6785686E-01 -0.6889273E-01   0.0000000E+00 -0.1000000E+01  0.0000000E+00
  0.6463839E-03 -0.6785686E-01  0.6889273E-01   0.0000000E+00 -0.1000000E+01  0.0000000E+00
 -0.6463839E-03 -0.6785686E-01  0.6889273E-01   0.0000000E+00 -0.1000000E+01  0.0000000E+00
           6
 -0.3425316E-01 -0.3392843E-01  0.8279603E-01   0.0000000E+00 -0.3791816E+00  0.9253223E+00
 -0.6463839E-03 -0.6785686E-01  0.6889273E-01   0.0000000E+00 -0.3791816E+00  0.9253223E+00
  0.6463839E-03 -0.6785686E-01  0.6889273E-01   0.0000000E+00 -0.3791816E+00  0.9253223E+00
  0.3425316E-01 -0.3392843E-01  0.8279603E-01   0.0000000E+00 -0.3791816E+00  0.9253223E+00
  0.6463839E-03  0.0000000E+00  0.9669934E-01   0.0000000E+00 -0.3791816E+00  0.9253223E+00
 -0.6463839E-03  0.0000000E+00  0.9669934E-01   0.0000000E+00 -0.3791816E+00  0.9253223E+00
           4
 -0.6463839E-03  0.0000000E+00  0.9669934E-01  -0.3822826E+00 -0.3514576E-15  0.9240455E+00
 -0.3425316E-01  0.3392843E-01  0.8279603E-01  -0.3822826E+00 -0.3514576E-15  0.9240455E+00
 -0.6785994E-01  0.0000000E+00  0.6889273E-01  -0.3822826E+00 -0.3514576E-15  0.9240455E+00
 -0.3425316E-01 -0.3392843E-01  0.8279603E-01  -0.3822826E+00 -0.3514576E-15  0.9240455E+00
           6
 -0.6463839E-03  0.6785686E-01 -0.6889273E-01   0.0000000E+00  0.3791816E+00 -0.9253223E+00
  0.6463839E-03  0.6785686E-01 -0.6889273E-01   0.0000000E+00  0.3791816E+00 -0.9253223E+00
  0.3425316E-01  0.3392843E-01 -0.8279603E-01   0.0000000E+00  0.3791816E+00 -0.9253223E+00
  0.6463839E-03  0.0000000E+00 -0.9669934E-01   0.0000000E+00  0.3791816E+00 -0.9253223E+00
 -0.6463839E-03  0.0000000E+00 -0.9669934E-01   0.0000000E+00  0.3791816E+00 -0.9253223E+00
 -0.3425316E-01  0.3392843E-01 -0.8279603E-01   0.0000000E+00  0.3791816E+00 -0.9253223E+00
           6
  0.6463839E-03 -0.6785686E-01 -0.6889273E-01   0.7104665E+00 -0.7037310E+00  0.6531787E-15
  0.3425316E-01 -0.3392843E-01 -0.8279603E-01   0.7104665E+00 -0.7037310E+00  0.6531787E-15
  0.6785994E-01  0.0000000E+00 -0.6889273E-01   0.7104665E+00 -0.7037310E+00  0.6531787E-15
  0.6785994E-01  0.0000000E+00  0.6889273E-01   0.7104665E+00 -0.7037310E+00  0.6531787E-15
  0.3425316E-01 -0.3392843E-01  0.8279603E-01   0.7104665E+00 -0.7037310E+00  0.6531787E-15
  0.6463839E-03 -0.6785686E-01  0.6889273E-01   0.7104665E+00 -0.7037310E+00  0.6531787E-15
           4
  0.3425316E-01 -0.3392843E-01 -0.8279603E-01   0.3822826E+00  0.1757288E-15 -0.9240455E+00
  0.6463839E-03  0.0000000E+00 -0.9669934E-01   0.3822826E+00  0.1757288E-15 -0.9240455E+00
  0.3425316E-01  0.3392843E-01 -0.8279603E-01   0.3822826E+00  0.1757288E-15 -0.9240455E+00
  0.6785994E-01  0.0000000E+00 -0.6889273E-01   0.3822826E+00  0.1757288E-15 -0.9240455E+00
           6
 -0.6463839E-03  0.0000000E+00  0.9669934E-01   0.0000000E+00  0.3791816E+00  0.9253223E+00
  0.6463839E-03  0.0000000E+00  0.9669934E-01   0.0000000E+00  0.3791816E+00  0.9253223E+00
  0.3425316E-01  0.3392843E-01  0.8279603E-01   0.0000000E+00  0.3791816E+00  0.9253223E+00
  0.6463839E-03  0.6785686E-01  0.6889273E-01   0.0000000E+00  0.3791816E+00  0.9253223E+00
 -0.6463839E-03  0.6785686E-01  0.6889273E-01   0.0000000E+00  0.3791816E+00  0.9253223E+00
 -0.3425316E-01  0.3392843E-01  0.8279603E-01   0.0000000E+00  0.3791816E+00  0.9253223E+00
           4
 -0.6463839E-03  0.6785686E-01  0.6889273E-01   0.0000000E+00  0.1000000E+01  0.0000000E+00
  0.6463839E-03  0.6785686E-01  0.6889273E-01   0.0000000E+00  0.1000000E+01  0.0000000E+00
  0.6463839E-03  0.6785686E-01 -0.6889273E-01   0.0000000E+00  0.1000000E+01  0.0000000E+00
 -0.6463839E-03  0.6785686E-01 -0.6889273E-01   0.0000000E+00  0.1000000E+01  0.0000000E+00
           4
  0.3425316E-01 -0.3392843E-01  0.8279603E-01   0.3822826E+00  0.3514576E-15  0.9240455E+00
  0.6785994E-01  0.0000000E+00  0.6889273E-01   0.3822826E+00  0.3514576E-15  0.9240455E+00
  0.3425316E-01  0.3392843E-01  0.8279603E-01   0.3822826E+00  0.3514576E-15  0.9240455E+00
  0.6463839E-03  0.0000000E+00  0.9669934E-01   0.3822826E+00  0.3514576E-15  0.9240455E+00
           6
  0.6463839E-03  0.6785686E-01  0.6889273E-01   0.7104665E+00  0.7037310E+00  0.1632947E-14
  0.3425316E-01  0.3392843E-01  0.8279603E-01   0.7104665E+00  0.7037310E+00  0.1632947E-14
  0.6785994E-01  0.0000000E+00  0.6889273E-01   0.7104665E+00  0.7037310E+00  0.1632947E-14
  0.6785994E-01  0.0000000E+00 -0.6889273E-01   0.7104665E+00  0.7037310E+00  0.1632947E-14
  0.3425316E-01  0.3392843E-01 -0.8279603E-01   0.7104665E+00  0.7037310E+00  0.1632947E-14
  0.6463839E-03  0.6785686E-01 -0.6889273E-01   0.7104665E+00  0.7037310E+00  0.1632947E-14
 BRILLOUIN-ZONE-CONVCELL_END
 ATOMS
   82   16.2779777490   -7.3684513500    1.5097341520
   82    5.6178103020    0.0000000000    1.5097341520
   35    5.8141837590    3.0176560150    1.5097341510
   35    5.8141837580   -3.0176560320    1.5097341510
   35   16.0816042990  -10.3861073720    1.5097341550
   35   16.0816043000   -4.3507953250    1.5097341550
   35   13.0335680000   -7.3684513500    1.5097341520
   35    8.8622200510    0.0000000000    1.5097341520
   35   11.8808046510    0.0000000000    4.5292024550
   35   10.0149834000   -7.3684513500   -1.5097341520
    6   11.2671966870   -2.9941186050    1.5097341510
    6   11.2671966880    2.9941186030    1.5097341520
    6   10.6285913640   -4.3743327450    1.5097341520
    6   10.6285913630  -10.3625699530    1.5097341520
    6   13.4303398880   -1.8015930000    1.5097341520
    6    6.1317438710   -5.5668583650   -1.5097341520
    6    8.4654481700   -5.5668583570    1.5097341550
    6   15.7640441870   -1.8015929930    4.5292024580
    1   10.9077694170   -4.9451131660    0.6151552310
    1    3.6091734010   -2.4233381850   -0.6151552310
    1   10.9880186340   -2.4233381840    0.6151552310
    1   10.9880186330    2.4233381850    2.4043130720
    1   10.9880186340   -2.4233381840    2.4043130720
    1   18.2866146500   -4.9451131650    3.6346235340
    1   10.9077694170   -4.9451131660    2.4043130720
    1   10.9077694180   -9.7917895350    0.6151552310
    1   14.5109616930   -1.9686181900    1.5097341520
    1    7.2123656760   -5.3998331590   -1.5097341510
    1    7.3848263580   -5.3998331600    1.5097341520
    1   14.6834223750   -1.9686181910    4.5292024540
    1    8.7771122630   -6.1109106120    2.4081082080
    1    8.7771122650   -8.6259920880    0.6113600950
    1   13.1186757950   -1.2575407460    2.4081082110
    1   13.1186757790    1.2575407460    0.6113600920
    1   13.1186757880   -1.2575407380    0.6113600950
    1   13.1186757860    1.2575407380    2.4081082080
    1    8.7771122560   -6.1109106040    0.6113600920
    1    8.7771122720   -8.6259920960    2.4081082110
    1    8.8525932020   -3.7061690430    0.6606965400
    1    8.8525932110    3.7061690510    2.3587717660
    1   13.0431948490   -3.6622823060    0.6606965400
    1    5.7445988240   -3.7061690510   -0.6606965430
    1   13.0431948490   -3.6622823070    2.3587717630
    1   13.0431948400  -11.0746204010    0.6606965370
    1    8.8525932020   -3.7061690440    2.3587717630
    1   16.1511892270   -3.6622822990    3.6801648460
    7   12.7504880350   -3.1254104570    1.5097341520
    7    5.4518920170   -4.2430409070   -1.5097341520
    7    9.1453000230   -4.2430409000    1.5097341540
    7   16.4438960410   -3.1254104500    4.5292024580
 FRAMES
1      0.0000000000    0.0000000000    0.0000000000      7.2985960170    7.3684513500    3.0194683030
1      0.0000000000    0.0000000000    0.0000000000      7.2985960170   -7.3684513500    3.0194683030
1      0.0000000000    0.0000000000    0.0000000000      7.2985960170   -7.3684513500   -3.0194683030
1      7.2985960170   -7.3684513500   -3.0194683030     14.5971920340    0.0000000000    0.0000000000
1      7.2985960170   -7.3684513500   -3.0194683030     14.5971920340  -14.7369027000    0.0000000000
1      7.2985960170   -7.3684513500    3.0194683030     14.5971920340    0.0000000000    6.0389366060
1      7.2985960170   -7.3684513500    3.0194683030     14.5971920340  -14.7369027000    0.0000000000
1     14.5971920340  -14.7369027000    0.0000000000     21.8957880510   -7.3684513500    3.0194683030
1      7.2985960170    7.3684513500    3.0194683030     14.5971920340    0.0000000000    6.0389366060
1      7.2985960170    7.3684513500    3.0194683030     14.5971920340    0.0000000000    0.0000000000
1     14.5971920340    0.0000000000    0.0000000000     21.8957880510   -7.3684513500    3.0194683030
1     14.5971920340    0.0000000000    6.0389366060     21.8957880510   -7.3684513500    3.0194683030
